[TITLE]
;;Project Title/Notes

[OPTIONS]
;;Option             Value
FLOW_UNITS           LPS
INFILTRATION         HORTON
FLOW_ROUTING         DYNWAVE
LINK_OFFSETS         DEPTH
MIN_SLOPE            0
ALLOW_PONDING        NO
SKIP_STEADY_STATE    NO

START_DATE           09/19/2007
START_TIME           00:00:00
REPORT_START_DATE    09/21/2007
REPORT_START_TIME    00:00:00
END_DATE             09/22/2007
END_TIME             06:00:00
SWEEP_START          01/01
SWEEP_END            12/31
DRY_DAYS             0
REPORT_STEP          00:02:00
WET_STEP             00:01:00
DRY_STEP             00:01:00
ROUTING_STEP         0:00:03 
RULE_STEP            00:00:00

INERTIAL_DAMPING     PARTIAL
NORMAL_FLOW_LIMITED  BOTH
FORCE_MAIN_EQUATION  H-W
VARIABLE_STEP        0.75
LENGTHENING_STEP     0
MIN_SURFAREA         1.167
MAX_TRIALS           8
HEAD_TOLERANCE       0.0015
SYS_FLOW_TOL         5
LAT_FLOW_TOL         5
MINIMUM_STEP         0.5
THREADS              1

[EVAPORATION]
;;Data Source    Parameters
;;-------------- ----------------
CONSTANT         0.0
DRY_ONLY         NO

[RAINGAGES]
;;Name           Format    Interval SCF      Source    
;;-------------- --------- ------ ------ ----------
Gage1            INTENSITY 0:02     1        TIMESERIES RG1_21Sep       

[SUBCATCHMENTS]
;;         Raingage Outlet    Area   PercImperv Width PercSlope CurbLength SnowPack
S140_035   Gage1    140_035   2.0    27.0       50    0.5       0                
S241_025   Gage1    241_025   1.0    27.0       50    0.5       0                
S240_100   Gage1    240_100   1.4    27.0       50    0.5       0                
S230_030   Gage1    230_030   2.0    27.0       50    0.5       0                
S180_000   Gage1    180_000   0.6    27.0       50    0.5       0                
S241_035   Gage1    241_035   0.79   27.0       50    0.5       0                
S244_040   Gage1    244_040   1.6    27.0       50    0.5       0                
S243_020   Gage1    243_020   0.52   27.0       50    0.5       0                
S242_010   Gage1    242_010   1.7    27.0       50    0.5       0                
S246_016   Gage1    246_016   1.0    27.0       50    0.5       0                
S240_240   Gage1    240_240   0.32   27.0       50    0.5       0                
S246_030   Gage1    246_030   1.2    27.0       50    0.5       0                
S240_056   Gage1    240_056   0.77   27.0       50    0.5       0                
S245_010   Gage1    245_010   0.67   27.0       50    0.5       0                

[SUBAREAS]
;;Subcatchment   N-Imperv   N-Perv     S-Imperv   S-Perv     PctZero    RouteTo    PctRouted 
;;-------------- ---------- ---------- ---------- ---------- ---------- ---------- ----------
S140_035         0.02       0.2        1.27       2.54       0          OUTLET    
S241_025         0.02       0.2        1.27       2.54       0          OUTLET    
S240_100         0.02       0.2        1.27       2.54       0          OUTLET    
S230_030         0.02       0.2        1.27       2.54       0          OUTLET    
S180_000         0.02       0.2        1.27       2.54       0          OUTLET    
S241_035         0.02       0.2        1.27       2.54       0          OUTLET    
S244_040         0.02       0.2        1.27       2.54       0          OUTLET    
S243_020         0.02       0.2        1.27       2.54       0          OUTLET    
S242_010         0.02       0.2        1.27       2.54       0          OUTLET    
S246_016         0.02       0.2        1.27       2.54       0          OUTLET    
S240_240         0.02       0.2        1.27       2.54       0          OUTLET    
S246_030         0.02       0.2        1.27       2.54       0          OUTLET    
S240_056         0.02       0.2        1.27       2.54       0          OUTLET    
S245_010         0.02       0.2        1.27       2.54       0          OUTLET    

[INFILTRATION]
;;Subcatchment   Param1     Param2     Param3     Param4     Param5    
;;-------------- ---------- ---------- ---------- ---------- ----------
S140_035         114        30         4          2          0         
S241_025         89         11         4          2          0         
S240_100         89         11         4          2          0         
S230_030         114        30         4          2          0         
S180_000         89         11         4          2          0         
S241_035         114        30         4          2          0         
S244_040         114        30         4          2          0         
S243_020         114        30         4          2          0         
S242_010         114        30         4          2          0         
S246_016         89         11         4          2          0         
S240_240         89         11         4          2          0         
S246_030         89         11         4          2          0         
S240_056         89         11         4          2          0         
S245_010         89         11         4          2          0         

[JUNCTIONS]
;;        InvertElev MaxDepth InitDepth SurchargeDepth PondedArea
140_020   57.29      2.7      0.0       0.0            7210.0  
140_030   56.18      4.7      0.0       0.0            2090.0  
140_035   53.96      5.3      0.0       0.0            2390.0  
180_000   58.2       1.7      0.0       0.0            5080.0  
230_000   56.71      1.8      0.0       0.0            7940.0  
230_010   56.35      1.6      0.0       0.0            24940.0 
230_030   56.36      1.7      0.0       0.0            5480.0  
240_000   59.411     4.1      0.0       0.0            1350.0  
240_050   61.68      3.9      0.0       0.0            3400.0  
240_055   59.76      3.9      0.0       0.0            1650.0  
240_056   63.06      1.5      0.0       0.0            2530.0  
240_060   62.44      1.5      0.0       0.0            2420.0  
240_065   64.29      0.9      0.0       0.0            1260.0  
240_070   64.738     1.6      0.0       0.0            3000.0  
240_090   64.37      1.6      0.0       0.0            5980.0  
240_100   66.22      1.4      0.0       0.0            2080.0  
240_220   66.7       1.4      0.0       0.0            930.0   
240_230   66.799     1.4      0.0       0.0            2030.0  
240_240   68.773     1.4      0.0       0.0            4150.0  
241_010   59.896     3.6      0.0       0.0            4540.0  
241_020   65.28      2.0      0.0       0.0            3190.0  
241_025   66.96      1.6      0.0       0.0            5620.0  
241_030   64.39      1.8      0.0       0.0            2020.0  
241_035   65.42      1.3      0.0       0.0            3560.0  
242_010   64.18      1.9      0.0       0.0            4660.0  
242_015   65.48      1.9      0.0       0.0            4050.0  
243_010   63.86      1.2      0.0       0.0            1050.0  
243_020   65.22      1.3      0.0       0.0            1910.0  
244_010   65.49      1.3      0.0       0.0            2570.0  
244_020   66.15      1.1      0.0       0.0            6410.0  
244_030   65.75      1.5      0.0       0.0            5160.0  
244_040   67.9       1.1      0.0       0.0            5150.0  
245_010   65.21      0.97     0.0       0.0            2010.0  
246_010   66.41      1.4      0.0       0.0            2770.0  
246_015   67.348     1.8      0.0       0.0            1970.0  
246_016   68.653     1.5      0.0       0.0            4850.0  
246_020   66.83      1.5      0.0       0.0            3480.0  
246_030   67.41      1.7      0.0       0.0            5180.0  

[OUTFALLS]
;;Name           Elevation  Type       Stage Data       Gated    Route To        
;;-------------- ---------- ---------- ---------------- -------- ----------------
; Name InvertEl FREE FlapGate
; Name InvertEl NORMAL FlapGate
; Name InvertEl FIXED FixedStage FlapGate
; Name InvertEl TIDAL TideTable FlapGate
; Name InvertEl TIMESERIES StageSeries FlapGate
140_040          52.12      FREE                        NO                       

[CONDUITS]
;;          InletNode OutletNode Length  Roughness  InOffset OutOffset InitFlow MaxFlow
140_020.1   140_020   140_030    130.0   0.012857   0.02     0.0       0.0      0    
140_030.1   140_030   140_035    180.0   0.012857   0.0      1.598     0.0      0    
230_000.1   230_000   140_035    74.0    0.012857   0.0      0.522     0.0      0    
230_010.1   230_010   230_000    270.0   0.012857   0.0      0.02      0.0      0    
230_030.1   230_030   230_010    180.0   0.012857   0.0      0.13      0.0      0    
240_000.1   240_000   140_035    74.0    0.012857   2.16     0.468     0.0      0    
240_050.1   240_050   240_000    320.0   0.012857   0.0      0.0       0.0      0    
240_055.1   240_055   240_050    300.0   0.012857   0.0      0.0       0.0      0    
240_056.1   240_056   240_055    89.0    0.012857   0.0      2.0       0.0      0    
240_060.1   240_060   240_056    180.0   0.012857   0.0      0.0       0.0      0    
240_065.1   240_065   240_060    81.0    0.012857   0.0      0.61      0.0      0    
240_070.1   240_070   240_065    110.0   0.012857   0.0      0.0       0.0      0    
240_090.1   240_090   240_070    150.0   0.012857   0.0      0.0       0.0      0    
240_100.1   240_100   240_090    150.0   0.012857   0.0      0.0       0.0      0    
240_220.1   240_220   240_100    47.0    0.012857   0.0      0.0       0.0      0    
240_230.1   240_230   240_220    49.0    0.012857   0.0      0.0       0.0      0    
240_240.1   240_240   240_230    180.0   0.012857   0.0      0.0       0.0      0    
241_010.1   241_010   240_000    59.0    0.012857   0.0      0.5       0.0      0    
241_020.1   241_020   241_010    190.0   0.012857   0.0      0.0       0.0      0    
241_025.1   241_025   241_020    100.0   0.012857   0.0      0.39      0.0      0    
241_030.1   241_030   241_020    240.0   0.012857   0.71     0.88      0.0      0    
241_035.1   241_035   241_030    74.0    0.012857   0.0      0.0       0.0      0    
242_010.1   242_010   241_010    220.0   0.012857   0.0      1.45      0.0      0    
242_015.1   242_015   242_010    310.0   0.012857   0.0      0.0       0.0      0    
243_010.1   243_010   240_055    59.0    0.012857   0.0      2.0       0.0      0    
243_020.1   243_020   243_010    89.0    0.012857   0.0      0.0       0.0      0    
244_010.1   244_010   240_056    180.0   0.012857   0.17     0.35      0.0      0    
244_020.1   244_020   244_010    120.0   0.012857   0.0      0.0       0.0      0    
244_030.1   244_030   244_020    310.0   0.012857   0.0      0.0       0.0      0    
244_040.1   244_040   244_030    69.0    0.012857   0.0      0.5       0.0      0    
245_010.1   245_010   240_070    59.0    0.012857   0.0      0.0       0.0      0    
246_010.1   246_010   240_100    52.0    0.012857   0.0      0.0       0.0      0    
246_015.1   246_015   246_010    130.0   0.012857   0.0      0.0       0.0      0    
246_016.1   246_016   246_015    130.0   0.012857   0.0      0.0       0.0      0    
246_030.1   246_030   246_020    59.0    0.012857   0.0      0.0       0.0      0    
246_020.1   246_020   246_010    180.0   0.012857   0.11     0.0       0.0      0    
140_035.1   140_035   140_040    980.0   0.01       0.0      0.0       0.0      0    

[XSECTIONS]
;;          Shape      Geom1  Geom2 Geom3 Geom4 Barrels Culvert
140_020.1   CIRCULAR   1.1    0.0   0.0   0.0   1            
140_030.1   CIRCULAR   1.1    0.0   0.0   0.0   1            
230_000.1   CIRCULAR   0.41   0.0   0.0   0.0   1            
230_010.1   CIRCULAR   0.41   0.0   0.0   0.0   1            
230_030.1   CIRCULAR   0.28   0.0   0.0   0.0   1            
240_000.1   CIRCULAR   0.28   0.0   0.0   0.0   1            
240_050.1   CIRCULAR   0.28   0.0   0.0   0.0   1            
240_055.1   CIRCULAR   0.28   0.0   0.0   0.0   1            
240_056.1   CIRCULAR   0.28   0.0   0.0   0.0   1            
240_060.1   CIRCULAR   0.28   0.0   0.0   0.0   1            
240_065.1   CIRCULAR   0.28   0.0   0.0   0.0   1            
240_070.1   CIRCULAR   0.28   0.0   0.0   0.0   1            
240_090.1   CIRCULAR   0.28   0.0   0.0   0.0   1            
240_100.1   CIRCULAR   0.21   0.0   0.0   0.0   1            
240_220.1   CIRCULAR   0.14   0.0   0.0   0.0   1            
240_230.1   CIRCULAR   0.14   0.0   0.0   0.0   1            
240_240.1   CIRCULAR   0.14   0.0   0.0   0.0   1            
241_010.1   CIRCULAR   0.21   0.0   0.0   0.0   1            
241_020.1   CIRCULAR   0.21   0.0   0.0   0.0   1            
241_025.1   CIRCULAR   0.14   0.0   0.0   0.0   1            
241_030.1   CIRCULAR   0.21   0.0   0.0   0.0   1            
241_035.1   CIRCULAR   0.14   0.0   0.0   0.0   1            
242_010.1   CIRCULAR   0.21   0.0   0.0   0.0   1            
242_015.1   CIRCULAR   0.14   0.0   0.0   0.0   1            
243_010.1   CIRCULAR   0.14   0.0   0.0   0.0   1            
243_020.1   CIRCULAR   0.14   0.0   0.0   0.0   1            
244_010.1   CIRCULAR   0.21   0.0   0.0   0.0   1            
244_020.1   CIRCULAR   0.21   0.0   0.0   0.0   1            
244_030.1   CIRCULAR   0.21   0.0   0.0   0.0   1            
244_040.1   CIRCULAR   0.14   0.0   0.0   0.0   1            
245_010.1   CIRCULAR   0.28   0.0   0.0   0.0   1            
246_010.1   CIRCULAR   0.21   0.0   0.0   0.0   1            
246_015.1   CIRCULAR   0.14   0.0   0.0   0.0   1            
246_016.1   CIRCULAR   0.14   0.0   0.0   0.0   1            
246_030.1   CIRCULAR   0.14   0.0   0.0   0.0   1            
246_020.1   CIRCULAR   0.14   0.0   0.0   0.0   1            
140_035.1   CIRCULAR   0.92   0.0   0.0   0.0   1            

[LOSSES]
;;Link           Kentry     Kexit      Kavg       Flap Gate  Seepage   
;;-------------- ---------- ---------- ---------- ---------- ----------
140_020.1        0.150000   0.015000   0.000000   NO         0         
140_030.1        0.150000   0.015000   0.000000   NO         0         
230_000.1        0.150000   0.015000   0.000000   NO         0         
230_010.1        0.150000   0.015000   0.000000   NO         0         
230_030.1        0.150000   0.015000   0.000000   NO         0         
240_000.1        0.150000   0.015000   0.000000   NO         0         
240_050.1        0.150000   0.015000   0.000000   NO         0         
240_055.1        0.150000   0.015000   0.000000   NO         0         
240_056.1        0.150000   0.015000   0.000000   NO         0         
240_060.1        0.150000   0.015000   0.000000   NO         0         
240_065.1        0.150000   0.015000   0.000000   NO         0         
240_070.1        0.150000   0.015000   0.000000   NO         0         
240_090.1        0.150000   0.015000   0.000000   NO         0         
240_100.1        0.150000   0.015000   0.000000   NO         0         
240_220.1        0.150000   0.015000   0.000000   NO         0         
240_230.1        0.150000   0.015000   0.000000   NO         0         
240_240.1        0.150000   0.015000   0.000000   NO         0         
241_010.1        0.150000   0.015000   0.000000   NO         0         
241_020.1        0.150000   0.015000   0.000000   NO         0         
241_025.1        0.150000   0.015000   0.000000   NO         0         
241_030.1        0.150000   0.015000   0.000000   NO         0         
241_035.1        0.150000   0.015000   0.000000   NO         0         
242_010.1        0.150000   0.015000   0.000000   NO         0         
242_015.1        0.150000   0.015000   0.000000   NO         0         
243_010.1        0.150000   0.015000   0.000000   NO         0         
243_020.1        0.150000   0.015000   0.000000   NO         0         
244_010.1        0.150000   0.015000   0.000000   NO         0         
244_020.1        0.150000   0.015000   0.000000   NO         0         
244_030.1        0.150000   0.015000   0.000000   NO         0         
244_040.1        0.150000   0.015000   0.000000   NO         0         
245_010.1        0.150000   0.015000   0.000000   NO         0         
246_010.1        0.150000   0.015000   0.000000   NO         0         
246_015.1        0.150000   0.015000   0.000000   NO         0         
246_016.1        0.150000   0.015000   0.000000   NO         0         
246_030.1        0.150000   0.015000   0.000000   NO         0         
246_020.1        0.15       0.015      0          NO         0         

[TIMESERIES]
;;          Date        Time    Value 
RG1_21Sep   9/19/2007   0:00    0.0 
RG1_21Sep   9/19/2007   0:02    0.0 
RG1_21Sep   9/19/2007   0:04    0.0 
RG1_21Sep   9/19/2007   0:06    0.0 
RG1_21Sep   9/19/2007   0:08    0.0 
RG1_21Sep   9/19/2007   0:10    0.0 
RG1_21Sep   9/19/2007   0:12    0.0 
RG1_21Sep   9/19/2007   0:14    0.0 
RG1_21Sep   9/19/2007   0:16    0.0 
RG1_21Sep   9/19/2007   0:18    0.0 
RG1_21Sep   9/19/2007   0:20    0.0 
RG1_21Sep   9/19/2007   0:22    0.0 
RG1_21Sep   9/19/2007   0:24    0.0 
RG1_21Sep   9/19/2007   0:26    0.0 
RG1_21Sep   9/19/2007   0:28    0.0 
RG1_21Sep   9/19/2007   0:30    0.0 
RG1_21Sep   9/19/2007   0:32    0.0 
RG1_21Sep   9/19/2007   0:34    0.0 
RG1_21Sep   9/19/2007   0:36    0.0 
RG1_21Sep   9/19/2007   0:38    0.0 
RG1_21Sep   9/19/2007   0:40    0.0 
RG1_21Sep   9/19/2007   0:42    0.0 
RG1_21Sep   9/19/2007   0:44    0.0 
RG1_21Sep   9/19/2007   0:46    0.0 
RG1_21Sep   9/19/2007   0:48    0.0 
RG1_21Sep   9/19/2007   0:50    0.0 
RG1_21Sep   9/19/2007   0:52    0.0 
RG1_21Sep   9/19/2007   0:54    0.0 
RG1_21Sep   9/19/2007   0:56    0.0 
RG1_21Sep   9/19/2007   0:58    0.0 
RG1_21Sep   9/19/2007   1:00    0.0 
RG1_21Sep   9/19/2007   1:02    0.0 
RG1_21Sep   9/19/2007   1:04    0.0 
RG1_21Sep   9/19/2007   1:06    0.0 
RG1_21Sep   9/19/2007   1:08    0.0 
RG1_21Sep   9/19/2007   1:10    0.0 
RG1_21Sep   9/19/2007   1:12    0.0 
RG1_21Sep   9/19/2007   1:14    0.0 
RG1_21Sep   9/19/2007   1:16    0.0 
RG1_21Sep   9/19/2007   1:18    0.0 
RG1_21Sep   9/19/2007   1:20    0.0 
RG1_21Sep   9/19/2007   1:22    0.0 
RG1_21Sep   9/19/2007   1:24    0.0 
RG1_21Sep   9/19/2007   1:26    0.0 
RG1_21Sep   9/19/2007   1:28    0.0 
RG1_21Sep   9/19/2007   1:30    0.0 
RG1_21Sep   9/19/2007   1:32    0.0 
RG1_21Sep   9/19/2007   1:34    0.0 
RG1_21Sep   9/19/2007   1:36    0.0 
RG1_21Sep   9/19/2007   1:38    0.0 
RG1_21Sep   9/19/2007   1:40    0.0 
RG1_21Sep   9/19/2007   1:42    0.0 
RG1_21Sep   9/19/2007   1:44    0.0 
RG1_21Sep   9/19/2007   1:46    0.0 
RG1_21Sep   9/19/2007   1:48    0.0 
RG1_21Sep   9/19/2007   1:50    0.0 
RG1_21Sep   9/19/2007   1:52    0.0 
RG1_21Sep   9/19/2007   1:54    0.0 
RG1_21Sep   9/19/2007   1:56    0.0 
RG1_21Sep   9/19/2007   1:58    0.0 
RG1_21Sep   9/19/2007   2:00    0.0 
RG1_21Sep   9/19/2007   2:02    0.0 
RG1_21Sep   9/19/2007   2:04    0.0 
RG1_21Sep   9/19/2007   2:06    0.0 
RG1_21Sep   9/19/2007   2:08    0.0 
RG1_21Sep   9/19/2007   2:10    0.0 
RG1_21Sep   9/19/2007   2:12    0.0 
RG1_21Sep   9/19/2007   2:14    0.0 
RG1_21Sep   9/19/2007   2:16    0.0 
RG1_21Sep   9/19/2007   2:18    0.0 
RG1_21Sep   9/19/2007   2:20    0.0 
RG1_21Sep   9/19/2007   2:22    0.0 
RG1_21Sep   9/19/2007   2:24    0.0 
RG1_21Sep   9/19/2007   2:26    0.0 
RG1_21Sep   9/19/2007   2:28    0.0 
RG1_21Sep   9/19/2007   2:30    0.0 
RG1_21Sep   9/19/2007   2:32    0.0 
RG1_21Sep   9/19/2007   2:34    0.0 
RG1_21Sep   9/19/2007   2:36    0.0 
RG1_21Sep   9/19/2007   2:38    0.0 
RG1_21Sep   9/19/2007   2:40    0.0 
RG1_21Sep   9/19/2007   2:42    0.0 
RG1_21Sep   9/19/2007   2:44    0.0 
RG1_21Sep   9/19/2007   2:46    0.0 
RG1_21Sep   9/19/2007   2:48    0.0 
RG1_21Sep   9/19/2007   2:50    0.0 
RG1_21Sep   9/19/2007   2:52    0.0 
RG1_21Sep   9/19/2007   2:54    0.0 
RG1_21Sep   9/19/2007   2:56    0.0 
RG1_21Sep   9/19/2007   2:58    0.0 
RG1_21Sep   9/19/2007   3:00    0.0 
RG1_21Sep   9/19/2007   3:02    0.0 
RG1_21Sep   9/19/2007   3:04    0.0 
RG1_21Sep   9/19/2007   3:06    0.0 
RG1_21Sep   9/19/2007   3:08    0.0 
RG1_21Sep   9/19/2007   3:10    0.0 
RG1_21Sep   9/19/2007   3:12    0.0 
RG1_21Sep   9/19/2007   3:14    0.0 
RG1_21Sep   9/19/2007   3:16    0.0 
RG1_21Sep   9/19/2007   3:18    0.0 
RG1_21Sep   9/19/2007   3:20    0.0 
RG1_21Sep   9/19/2007   3:22    0.0 
RG1_21Sep   9/19/2007   3:24    0.0 
RG1_21Sep   9/19/2007   3:26    0.0 
RG1_21Sep   9/19/2007   3:28    0.0 
RG1_21Sep   9/19/2007   3:30    0.0 
RG1_21Sep   9/19/2007   3:32    0.0 
RG1_21Sep   9/19/2007   3:34    0.0 
RG1_21Sep   9/19/2007   3:36    0.0 
RG1_21Sep   9/19/2007   3:38    0.0 
RG1_21Sep   9/19/2007   3:40    0.0 
RG1_21Sep   9/19/2007   3:42    0.0 
RG1_21Sep   9/19/2007   3:44    0.0 
RG1_21Sep   9/19/2007   3:46    0.0 
RG1_21Sep   9/19/2007   3:48    0.0 
RG1_21Sep   9/19/2007   3:50    0.0 
RG1_21Sep   9/19/2007   3:52    0.0 
RG1_21Sep   9/19/2007   3:54    0.0 
RG1_21Sep   9/19/2007   3:56    0.0 
RG1_21Sep   9/19/2007   3:58    0.0 
RG1_21Sep   9/19/2007   4:00    0.0 
RG1_21Sep   9/19/2007   4:02    0.0 
RG1_21Sep   9/19/2007   4:04    0.0 
RG1_21Sep   9/19/2007   4:06    0.0 
RG1_21Sep   9/19/2007   4:08    0.0 
RG1_21Sep   9/19/2007   4:10    0.0 
RG1_21Sep   9/19/2007   4:12    0.0 
RG1_21Sep   9/19/2007   4:14    0.0 
RG1_21Sep   9/19/2007   4:16    0.0 
RG1_21Sep   9/19/2007   4:18    0.0 
RG1_21Sep   9/19/2007   4:20    0.0 
RG1_21Sep   9/19/2007   4:22    0.0 
RG1_21Sep   9/19/2007   4:24    0.0 
RG1_21Sep   9/19/2007   4:26    0.0 
RG1_21Sep   9/19/2007   4:28    0.0 
RG1_21Sep   9/19/2007   4:30    0.0 
RG1_21Sep   9/19/2007   4:32    0.0 
RG1_21Sep   9/19/2007   4:34    0.0 
RG1_21Sep   9/19/2007   4:36    0.0 
RG1_21Sep   9/19/2007   4:38    0.0 
RG1_21Sep   9/19/2007   4:40    0.0 
RG1_21Sep   9/19/2007   4:42    0.0 
RG1_21Sep   9/19/2007   4:44    0.0 
RG1_21Sep   9/19/2007   4:46    0.0 
RG1_21Sep   9/19/2007   4:48    0.0 
RG1_21Sep   9/19/2007   4:50    0.0 
RG1_21Sep   9/19/2007   4:52    0.0 
RG1_21Sep   9/19/2007   4:54    0.0 
RG1_21Sep   9/19/2007   4:56    0.0 
RG1_21Sep   9/19/2007   4:58    0.0 
RG1_21Sep   9/19/2007   5:00    0.0 
RG1_21Sep   9/19/2007   5:02    0.0 
RG1_21Sep   9/19/2007   5:04    0.0 
RG1_21Sep   9/19/2007   5:06    0.0 
RG1_21Sep   9/19/2007   5:08    0.0 
RG1_21Sep   9/19/2007   5:10    0.0 
RG1_21Sep   9/19/2007   5:12    0.0 
RG1_21Sep   9/19/2007   5:14    0.0 
RG1_21Sep   9/19/2007   5:16    0.0 
RG1_21Sep   9/19/2007   5:18    0.0 
RG1_21Sep   9/19/2007   5:20    0.0 
RG1_21Sep   9/19/2007   5:22    0.0 
RG1_21Sep   9/19/2007   5:24    0.0 
RG1_21Sep   9/19/2007   5:26    0.0 
RG1_21Sep   9/19/2007   5:28    0.0 
RG1_21Sep   9/19/2007   5:30    0.0 
RG1_21Sep   9/19/2007   5:32    0.0 
RG1_21Sep   9/19/2007   5:34    0.0 
RG1_21Sep   9/19/2007   5:36    0.0 
RG1_21Sep   9/19/2007   5:38    0.0 
RG1_21Sep   9/19/2007   5:40    0.0 
RG1_21Sep   9/19/2007   5:42    0.0 
RG1_21Sep   9/19/2007   5:44    0.0 
RG1_21Sep   9/19/2007   5:46    0.0 
RG1_21Sep   9/19/2007   5:48    0.0 
RG1_21Sep   9/19/2007   5:50    0.0 
RG1_21Sep   9/19/2007   5:52    0.0 
RG1_21Sep   9/19/2007   5:54    0.0 
RG1_21Sep   9/19/2007   5:56    0.0 
RG1_21Sep   9/19/2007   5:58    0.0 
RG1_21Sep   9/19/2007   6:00    0.0 
RG1_21Sep   9/19/2007   6:02    0.0 
RG1_21Sep   9/19/2007   6:04    0.0 
RG1_21Sep   9/19/2007   6:06    0.0 
RG1_21Sep   9/19/2007   6:08    0.0 
RG1_21Sep   9/19/2007   6:10    0.0 
RG1_21Sep   9/19/2007   6:12    0.0 
RG1_21Sep   9/19/2007   6:14    0.0 
RG1_21Sep   9/19/2007   6:16    0.0 
RG1_21Sep   9/19/2007   6:18    0.0 
RG1_21Sep   9/19/2007   6:20    0.0 
RG1_21Sep   9/19/2007   6:22    0.0 
RG1_21Sep   9/19/2007   6:24    0.0 
RG1_21Sep   9/19/2007   6:26    0.0 
RG1_21Sep   9/19/2007   6:28    0.0 
RG1_21Sep   9/19/2007   6:30    0.0 
RG1_21Sep   9/19/2007   6:32    0.0 
RG1_21Sep   9/19/2007   6:34    0.0 
RG1_21Sep   9/19/2007   6:36    0.0 
RG1_21Sep   9/19/2007   6:38    0.0 
RG1_21Sep   9/19/2007   6:40    0.0 
RG1_21Sep   9/19/2007   6:42    0.0 
RG1_21Sep   9/19/2007   6:44    0.0 
RG1_21Sep   9/19/2007   6:46    0.0 
RG1_21Sep   9/19/2007   6:48    0.0 
RG1_21Sep   9/19/2007   6:50    0.0 
RG1_21Sep   9/19/2007   6:52    0.0 
RG1_21Sep   9/19/2007   6:54    0.0 
RG1_21Sep   9/19/2007   6:56    0.0 
RG1_21Sep   9/19/2007   6:58    0.0 
RG1_21Sep   9/19/2007   7:00    0.0 
RG1_21Sep   9/19/2007   7:02    0.0 
RG1_21Sep   9/19/2007   7:04    0.0 
RG1_21Sep   9/19/2007   7:06    0.0 
RG1_21Sep   9/19/2007   7:08    0.0 
RG1_21Sep   9/19/2007   7:10    0.0 
RG1_21Sep   9/19/2007   7:12    0.0 
RG1_21Sep   9/19/2007   7:14    0.0 
RG1_21Sep   9/19/2007   7:16    0.0 
RG1_21Sep   9/19/2007   7:18    0.0 
RG1_21Sep   9/19/2007   7:20    1.3 
RG1_21Sep   9/19/2007   7:22    1.3 
RG1_21Sep   9/19/2007   7:24    1.3 
RG1_21Sep   9/19/2007   7:26    1.3 
RG1_21Sep   9/19/2007   7:28    1.3 
RG1_21Sep   9/19/2007   7:30    3.2 
RG1_21Sep   9/19/2007   7:32    3.2 
RG1_21Sep   9/19/2007   7:34    0.0 
RG1_21Sep   9/19/2007   7:36    0.0 
RG1_21Sep   9/19/2007   7:38    0.0 
RG1_21Sep   9/19/2007   7:40    0.0 
RG1_21Sep   9/19/2007   7:42    0.0 
RG1_21Sep   9/19/2007   7:44    0.0 
RG1_21Sep   9/19/2007   7:46    0.0 
RG1_21Sep   9/19/2007   7:48    0.0 
RG1_21Sep   9/19/2007   7:50    0.0 
RG1_21Sep   9/19/2007   7:52    0.0 
RG1_21Sep   9/19/2007   7:54    0.0 
RG1_21Sep   9/19/2007   7:56    0.0 
RG1_21Sep   9/19/2007   7:58    0.0 
RG1_21Sep   9/19/2007   8:00    0.0 
RG1_21Sep   9/19/2007   8:02    0.0 
RG1_21Sep   9/19/2007   8:04    0.0 
RG1_21Sep   9/19/2007   8:06    0.0 
RG1_21Sep   9/19/2007   8:08    0.0 
RG1_21Sep   9/19/2007   8:10    0.0 
RG1_21Sep   9/19/2007   8:12    0.0 
RG1_21Sep   9/19/2007   8:14    0.0 
RG1_21Sep   9/19/2007   8:16    0.0 
RG1_21Sep   9/19/2007   8:18    0.0 
RG1_21Sep   9/19/2007   8:20    0.0 
RG1_21Sep   9/19/2007   8:22    0.0 
RG1_21Sep   9/19/2007   8:24    0.0 
RG1_21Sep   9/19/2007   8:26    0.0 
RG1_21Sep   9/19/2007   8:28    0.0 
RG1_21Sep   9/19/2007   8:30    0.0 
RG1_21Sep   9/19/2007   8:32    0.0 
RG1_21Sep   9/19/2007   8:34    0.0 
RG1_21Sep   9/19/2007   8:36    0.0 
RG1_21Sep   9/19/2007   8:38    0.0 
RG1_21Sep   9/19/2007   8:40    0.0 
RG1_21Sep   9/19/2007   8:42    0.0 
RG1_21Sep   9/19/2007   8:44    0.0 
RG1_21Sep   9/19/2007   8:46    0.0 
RG1_21Sep   9/19/2007   8:48    0.0 
RG1_21Sep   9/19/2007   8:50    0.0 
RG1_21Sep   9/19/2007   8:52    0.0 
RG1_21Sep   9/19/2007   8:54    0.0 
RG1_21Sep   9/19/2007   8:56    0.0 
RG1_21Sep   9/19/2007   8:58    0.0 
RG1_21Sep   9/19/2007   9:00    0.0 
RG1_21Sep   9/19/2007   9:02    0.0 
RG1_21Sep   9/19/2007   9:04    0.0 
RG1_21Sep   9/19/2007   9:06    0.0 
RG1_21Sep   9/19/2007   9:08    0.0 
RG1_21Sep   9/19/2007   9:10    0.0 
RG1_21Sep   9/19/2007   9:12    0.0 
RG1_21Sep   9/19/2007   9:14    0.0 
RG1_21Sep   9/19/2007   9:16    0.0 
RG1_21Sep   9/19/2007   9:18    0.0 
RG1_21Sep   9/19/2007   9:20    0.0 
RG1_21Sep   9/19/2007   9:22    0.0 
RG1_21Sep   9/19/2007   9:24    0.0 
RG1_21Sep   9/19/2007   9:26    0.0 
RG1_21Sep   9/19/2007   9:28    0.0 
RG1_21Sep   9/19/2007   9:30    0.0 
RG1_21Sep   9/19/2007   9:32    0.0 
RG1_21Sep   9/19/2007   9:34    0.0 
RG1_21Sep   9/19/2007   9:36    0.0 
RG1_21Sep   9/19/2007   9:38    0.0 
RG1_21Sep   9/19/2007   9:40    0.0 
RG1_21Sep   9/19/2007   9:42    0.0 
RG1_21Sep   9/19/2007   9:44    0.0 
RG1_21Sep   9/19/2007   9:46    0.0 
RG1_21Sep   9/19/2007   9:48    0.0 
RG1_21Sep   9/19/2007   9:50    0.0 
RG1_21Sep   9/19/2007   9:52    0.0 
RG1_21Sep   9/19/2007   9:54    0.0 
RG1_21Sep   9/19/2007   9:56    0.0 
RG1_21Sep   9/19/2007   9:58    0.0 
RG1_21Sep   9/19/2007   10:00   0.0 
RG1_21Sep   9/19/2007   10:02   0.0 
RG1_21Sep   9/19/2007   10:04   0.0 
RG1_21Sep   9/19/2007   10:06   0.0 
RG1_21Sep   9/19/2007   10:08   0.0 
RG1_21Sep   9/19/2007   10:10   0.0 
RG1_21Sep   9/19/2007   10:12   0.0 
RG1_21Sep   9/19/2007   10:14   0.0 
RG1_21Sep   9/19/2007   10:16   0.0 
RG1_21Sep   9/19/2007   10:18   0.0 
RG1_21Sep   9/19/2007   10:20   0.0 
RG1_21Sep   9/19/2007   10:22   0.0 
RG1_21Sep   9/19/2007   10:24   0.0 
RG1_21Sep   9/19/2007   10:26   0.0 
RG1_21Sep   9/19/2007   10:28   0.0 
RG1_21Sep   9/19/2007   10:30   0.0 
RG1_21Sep   9/19/2007   10:32   0.0 
RG1_21Sep   9/19/2007   10:34   0.0 
RG1_21Sep   9/19/2007   10:36   0.0 
RG1_21Sep   9/19/2007   10:38   0.0 
RG1_21Sep   9/19/2007   10:40   0.0 
RG1_21Sep   9/19/2007   10:42   0.0 
RG1_21Sep   9/19/2007   10:44   0.0 
RG1_21Sep   9/19/2007   10:46   0.0 
RG1_21Sep   9/19/2007   10:48   0.0 
RG1_21Sep   9/19/2007   10:50   0.0 
RG1_21Sep   9/19/2007   10:52   0.0 
RG1_21Sep   9/19/2007   10:54   0.0 
RG1_21Sep   9/19/2007   10:56   0.0 
RG1_21Sep   9/19/2007   10:58   0.0 
RG1_21Sep   9/19/2007   11:00   0.0 
RG1_21Sep   9/19/2007   11:02   0.0 
RG1_21Sep   9/19/2007   11:04   0.0 
RG1_21Sep   9/19/2007   11:06   0.0 
RG1_21Sep   9/19/2007   11:08   0.0 
RG1_21Sep   9/19/2007   11:10   0.0 
RG1_21Sep   9/19/2007   11:12   0.0 
RG1_21Sep   9/19/2007   11:14   0.0 
RG1_21Sep   9/19/2007   11:16   0.0 
RG1_21Sep   9/19/2007   11:18   0.0 
RG1_21Sep   9/19/2007   11:20   0.0 
RG1_21Sep   9/19/2007   11:22   0.0 
RG1_21Sep   9/19/2007   11:24   0.0 
RG1_21Sep   9/19/2007   11:26   0.0 
RG1_21Sep   9/19/2007   11:28   0.0 
RG1_21Sep   9/19/2007   11:30   0.0 
RG1_21Sep   9/19/2007   11:32   0.0 
RG1_21Sep   9/19/2007   11:34   0.0 