[TITLE]
;;Project Title/Notes

[OPTIONS]
;;Option             Value
FLOW_UNITS           CMS
INFILTRATION         GREEN_AMPT
FLOW_ROUTING         KINWAVE
LINK_OFFSETS         DEPTH
MIN_SLOPE            0
ALLOW_PONDING        NO
SKIP_STEADY_STATE    NO

START_DATE           09/10/2001
START_TIME           00:00:00
REPORT_START_DATE    09/10/2001
REPORT_START_TIME    00:00:00
END_DATE             09/13/2001
END_TIME             23:00:00
SWEEP_START          01/01
SWEEP_END            12/31
DRY_DAYS             0
REPORT_STEP          01:00:00
WET_STEP             00:05:00
DRY_STEP             01:00:00
ROUTING_STEP         0:00:30 
RULE_STEP            00:00:00

INERTIAL_DAMPING     PARTIAL
NORMAL_FLOW_LIMITED  SLOPE
FORCE_MAIN_EQUATION  H-W
VARIABLE_STEP        0.75
LENGTHENING_STEP     0
MIN_SURFAREA         1.167
MAX_TRIALS           8
HEAD_TOLERANCE       0.0015
SYS_FLOW_TOL         5
LAT_FLOW_TOL         5
MINIMUM_STEP         0.5
THREADS              1

[EVAPORATION]
;;Data Source    Parameters
;;-------------- ----------------
CONSTANT         0.0
DRY_ONLY         NO

[RAINGAGES]
;;Name           Format    Interval SCF      Source    
;;-------------- --------- ------ ------ ----------
RG1              VOLUME    0:10     1.0      TIMESERIES 10y2h           

[SUBCATCHMENTS]
;;   Raingage Outlet Area     PercImperv Width     PercSlope CurbLength SnowPack
C1   RG1      J1     6050.0   0.0        889.437   12        0                
C2   RG1      F1     6050.0   0.0        889.437   12        0                

[SUBAREAS]
;;Subcatchment   N-Imperv   N-Perv     S-Imperv   S-Perv     PctZero    RouteTo    PctRouted 
;;-------------- ---------- ---------- ---------- ---------- ---------- ---------- ----------
C1               0.0104573  0.103516   3          0          25         OUTLET    
C2               0.01       0.1        0.05       0.05       25         OUTLET    

[INFILTRATION]
;;Subcatchment   Param1     Param2     Param3     Param4     Param5    
;;-------------- ---------- ---------- ---------- ---------- ----------
C1               0.472187   1.30225    0.0701697  7          0         
C2               .0001      .001       .00001     7          0         

[JUNCTIONS]
;;   InvertElev MaxDepth InitDepth SurchargeDepth PondedArea
J1   5          0.0      0         0              0       
J3   1          0.0      0         0              0       
F1   3          0.0      0         0              0       

[OUTFALLS]
;;Name           Elevation  Type       Stage Data       Gated    Route To        
;;-------------- ---------- ---------- ---------------- -------- ----------------
1                0          FREE                        NO                       

[STORAGE]
;;Name           Elev.    MaxDepth   InitDepth  Shape      Curve Type/Params            SurDepth  Fevap    Psi      Ksat     IMD     
;;-------------- -------- ---------- ----------- ---------- ---------------------------- --------- --------          -------- --------
J2               2        1          0          FUNCTIONAL 10000      0          0        0         0       

[CONDUITS]
;;   InletNode OutletNode Length  Roughness InOffset OutOffset InitFlow MaxFlow
P1   J1        J2         429.0   0.01      0        0         0        0    
1    J2        J3         429.0   0.01      0        0         0        0    
2    F1        J3         429.0   0.01      0        0         0        0    
3    J3        1          429.0   0.01      0        0         0        0    

[XSECTIONS]
;;   Shape      Geom1   Geom2 Geom3 Geom4 Barrels Culvert
P1   CIRCULAR   0.955   0     0     0     1            
1    CIRCULAR   0.955   0     0     0     1            
2    CIRCULAR   0.955   0     0     0     1            
3    CIRCULAR   0.955   0     0     0     1            

[TIMESERIES]
;;      Date   Time   Value 
10y2h          0:10   1.19
10y2h          0:20   1.46
10y2h          0:30   1.9 
10y2h          0:40   2.72
10y2h          0:50   4.74
10y2h          1:00   14.3
10y2h          1:10   7.29
10y2h          1:20   3.47
10y2h          1:30   2.23
10y2h          1:40   1.65
10y2h          1:50   1.31
10y2h          2:00   1.08

[REPORT]
;;Reporting Options
SUBCATCHMENTS ALL
NODES ALL
LINKS ALL

[TAGS]

[MAP]
DIMENSIONS -342.128 0.000 10000.000 10000.000
Units      None

[COORDINATES]
;;Node           X-Coord            Y-Coord           
;;-------------- ------------------ ------------------
J1               1847.034           5848.075          
J3               3844.753           2653.779          
F1               6020.151           5201.511          
1                5145.281           1405.975          
J2               2122.434           4182.777          

[VERTICES]
;;Link           X-Coord            Y-Coord           
;;-------------- ------------------ ------------------

[Polygons]
;;Subcatchment   X-Coord            Y-Coord           
;;-------------- ------------------ ------------------
C1               2.461              9386.439          
C1               -39.162            6743.359          
C1               2583.106           6743.359          
C1               2583.106           9407.251          
C1               -28.756            9407.251          
C2               4541.883           6584.651          
C2               6352.076           9045.108          
C2               8179.844           7885.179          

[SYMBOLS]
;;Gage           X-Coord            Y-Coord           
;;-------------- ------------------ ------------------
RG1              3688.866           9646.202          

